/*--------------------------------*- C++ -*----------------------------------*\
| =========                 |                                                 |
| \\      /  F ield         | OpenFOAM: The Open Source CFD Toolbox           |
|  \\    /   O peration     | Version:  v2406                                 |
|   \\  /    A nd           | Website:  www.openfoam.com                      |
|    \\/     M anipulation  |                                                 |
\*---------------------------------------------------------------------------*/
FoamFile
{
    version     2.0;
    format      ascii;
    class       dictionary;
    object      fvSchemes;
}
// * * * * * * * * * * * * * * * * * * * * * * * * * * * * * * * * * * * * * //

fluxScheme		Kurganov;

ddtSchemes
{
    default               Euler;
}

gradSchemes
{
    default               Gauss linear;
}

divSchemes
{
    default               none;
    div(tauMC)            Gauss linear;
}

laplacianSchemes
{
    default               Gauss linear uncorrected;	
}

interpolationSchemes
{
    default               linear;
    reconstruct(rho)      Minmod;
    reconstruct(U)        MinmodV;
    reconstruct(T)        Minmod;
    reconstruct(Yi)       Minmod;
}

snGradSchemes
{
    default               uncorrected;
}


// ************************************************************************* //
