/*--------------------------------*- C++ -*----------------------------------*\
| =========                 |                                                 |
| \\      /  F ield         | OpenFOAM: The Open Source CFD Toolbox           |
|  \\    /   O peration     | Version:  v2406                                 |
|   \\  /    A nd           | Website:  www.openfoam.com                      |
|    \\/     M anipulation  |                                                 |
\*---------------------------------------------------------------------------*/
FoamFile
{
    version     2.0;
    format      ascii;
    class       dictionary;
    object      fvSolution;
}
// * * * * * * * * * * * * * * * * * * * * * * * * * * * * * * * * * * * * * //

solvers
{
	"(U|e|h|Yi).*"
	{
		solver			PBiCGStab;
		preconditioner	DIC;
		tolerance		1e-11;
		relTol			0;
	}

	"rho.*"
	{
		solver		diagonal;
	}
}
PIMPLE
{
    maxCo           0.5;
    maxDeltaT       2e-8;
}
// ************************************************************************* //
