/*--------------------------------*- C++ -*----------------------------------*\
| =========                 |                                                 |
| \\      /  F ield         | OpenFOAM: The Open Source CFD Toolbox           |
|  \\    /   O peration     | Version:  v2406                                 |
|   \\  /    A nd           | Website:  www.openfoam.com                      |
|    \\/     M anipulation  |                                                 |
\*---------------------------------------------------------------------------*/
FoamFile
{
    version     2.0;
    format      ascii;
    class       dictionary;
    object      setFieldDict;
}
// * * * * * * * * * * * * * * * * * * * * * * * * * * * * * * * * * * * * * //

defaultFieldValues
(
    volVectorFieldValue U (0 0 0)
    volScalarFieldValue T 378.656
    volScalarFieldValue p 7173
);

regions
(
    boxToCell
    {
        box (0.06 -0.1 -0.1) (0.12 0.1 0.1);
        fieldValues
        (
            volVectorFieldValue U (-487.34 0 0)
            volScalarFieldValue T 748.472
            volScalarFieldValue p 35594
        );
    }
);


// ************************************************************************* //
